Reffs/Redes/Rede_03/_trafo3 - Copia/ckt03_bus_33998182_001_elem_kVA.txt

  Bus   (node ref)  Node       V (kV)    Angle    p.u.   Base kV

BUS_33998182_001 .... 1      0.12702 /_  -30.0         1     0.220        1-2       0.22 /_    0.0         1
   -                  2      0.12702 /_ -150.0         1     0.220        2-3       0.22 /_ -120.0         1
   -                  3      0.12702 /_   90.0         1     0.220        3-1       0.22 /_  120.0         1
   -                  4   5.5957E-009 /_  -18.8 4.4055E-008     0.220

CIRCUIT ELEMENT CURRENTS

(Currents into element from indicated bus)

Power Delivery Elements

  Bus         Phase    Magnitude, A     Angle      (Real)   +j  (Imag)

ELEMENT = "Line._ABCN_L01-SEC"
BUS_XFMR_SEC_33998182     1       0.00011653 /_   60.3 =  5.773E-005 +j 0.00010123
BUS_XFMR_SEC_33998182     2       0.00010657 /_  -60.1 =  5.3159E-005 +j -9.2363E-005
BUS_XFMR_SEC_33998182     3       0.00011693 /_  179.8 =  -0.00011693 +j 4.7518E-007
BUS_XFMR_SEC_33998182     4      9.6413E-006 /_  -16.5 =  9.2421E-006 +j -2.7456E-006
BUS_XFMR_SEC_33998182 Resid      7.3287E-006 /_ -115.9 =   -3.2034E-006 +j -6.5915E-006
------------
BUS_33998182_001          1       0.00010753 /_ -120.3 =  -5.43E-005 +j -9.2813E-005
BUS_33998182_001          2       9.615E-005 /_  120.1 =  -4.8199E-005 +j 8.3197E-005
BUS_33998182_001          3       0.00010713 /_    0.3 =  0.00010713 +j 4.7332E-007
BUS_33998182_001          4      8.1138E-006 /_  158.3 =  -7.5414E-006 +j 2.9936E-006
BUS_33998182_001      Resid      6.8031E-006 /_   64.7 =   2.911E-006 +j 6.1489E-006


ELEMENT = "Line._ABCN_L04-SEC"
BUS_33998182_001          1      1.0716E-005 /_   63.9 =  4.7086E-006 +j 9.6265E-006
BUS_33998182_001          2      1.1536E-005 /_  -60.8 =  5.6194E-006 +j -1.0075E-005
BUS_33998182_001          3       1.118E-005 /_  177.1 =  -1.1166E-005 +j 5.6447E-007
BUS_33998182_001          4      1.0228E-006 /_    8.3 =  1.0121E-006 +j 1.4759E-007
BUS_33998182_001      Resid      3.1573E-007 /_ -123.4 =   -1.7402E-007 +j -2.6345E-007
------------
BUS_33998182_014          1       7.358E-007 /_  148.3 =  -6.2613E-007 +j 3.8647E-007
BUS_33998182_014          2      8.8228E-007 /_  -71.2 =  2.8468E-007 +j -8.3509E-007
BUS_33998182_014          3      7.5188E-007 /_  131.3 =  -4.9668E-007 +j 5.6447E-007
BUS_33998182_014          4      1.0228E-006 /_    8.3 =  1.0121E-006 +j 1.4759E-007
BUS_33998182_014      Resid      3.1573E-007 /_ -123.4 =   -1.7402E-007 +j -2.6345E-007


ELEMENT = "Line._ABCN_L05-SEC"
BUS_33998182_001          1      4.1705E-005 /_   60.8 =  2.0332E-005 +j 3.6413E-005
BUS_33998182_001          2      4.2387E-005 /_  -60.2 =  2.1073E-005 +j -3.6778E-005
BUS_33998182_001          3       4.209E-005 /_  179.4 =  -4.2087E-005 +j 4.5928E-007
BUS_33998182_001          4      6.2203E-006 /_  -16.2 =  5.974E-006 +j -1.7331E-006
BUS_33998182_001      Resid      5.5401E-006 /_  162.8 =   -5.2921E-006 +j 1.639E-006
------------
BUS_33998182_002          1      3.2991E-005 /_ -121.0 =  -1.7011E-005 +j -2.8267E-005
BUS_33998182_002          2      3.2299E-005 /_  120.2 =  -1.627E-005 +j 2.7902E-005
BUS_33998182_002          3      3.2602E-005 /_    0.8 =  3.2599E-005 +j 4.5918E-007
BUS_33998182_002          4      4.7558E-006 /_  155.5 =  -4.3271E-006 +j 1.9732E-006
BUS_33998182_002      Resid       5.419E-006 /_  -22.4 =   5.009E-006 +j -2.0677E-006


ELEMENT = "Line._ABCN_L06-SEC"
BUS_33998182_001          1       5.383E-005 /_   60.8 =  2.6222E-005 +j 4.7012E-005
BUS_33998182_001          2      4.4071E-005 /_  -60.2 =  2.1874E-005 +j -3.826E-005
BUS_33998182_001          3      5.4343E-005 /_  179.4 =  -5.434E-005 +j 6.1342E-007
BUS_33998182_001          4      4.4232E-006 /_  -11.2 =  4.3396E-006 +j -8.5628E-007
BUS_33998182_001      Resid        8.72E-006 /_  -77.4 =   1.9045E-006 +j -8.5094E-006
------------
BUS_33998182_003          1      4.2207E-005 /_ -121.1 =  -2.1792E-005 +j -3.6146E-005
BUS_33998182_003          2      3.0615E-005 /_  120.3 =  -1.5467E-005 +j 2.642E-005
BUS_33998182_003          3      4.1688E-005 /_    0.8 =  4.1684E-005 +j 6.1168E-007
BUS_33998182_003          4      2.4446E-006 /_  151.2 =  -2.1429E-006 +j 1.1766E-006
BUS_33998182_003      Resid      8.2592E-006 /_  106.0 =   -2.2822E-006 +j 7.9377E-006


= = = = = = = = = = = = = = = = = = =  = = = = = = = = = = =  = =

Power Conversion Elements

  Bus         Phase    Magnitude, A     Angle      (Real)   +j  (Imag)


CIRCUIT ELEMENT POWER FLOW

(Power Flow into element from indicated Bus)

  Bus       Phase     kW     +j   kvar           kVA           PF

ELEMENT = "Line._ABCN_L01-SEC"  
BUS_33998182_001    1 -7.8635E-008 +j 1.3658E-005    1.3658E-005     -0.0058
BUS_33998182_001    2 1.8135E-008 +j 1.2213E-005    1.2213E-005      0.0015
BUS_33998182_001    3 6.0121E-008 +j 1.3607E-005    1.3607E-005      0.0044
BUS_33998182_001    4 -4.5346E-014 +j -2.265E-015    4.5402E-014      0.9988
 TERMINAL TOTAL   -3.7993E-010 +j 3.9478E-005    3.9478E-005      0.0000
------------
ELEMENT = "Line._ABCN_L01-SEC"  
BUS_XFMR_SEC_33998182    1 -7.8337E-008 +j -1.4801E-005    1.4801E-005      0.0053
BUS_XFMR_SEC_33998182    2 1.8363E-008 +j -1.3536E-005    1.3536E-005     -0.0014
BUS_XFMR_SEC_33998182    3 6.0354E-008 +j -1.4852E-005    1.4852E-005     -0.0041
BUS_XFMR_SEC_33998182    4 5.4413E-014 +j -2.4876E-015    5.447E-014     -0.9990
 TERMINAL TOTAL   3.8046E-010 +j -4.3189E-005    4.3189E-005      0.0000
ELEMENT = "Line._ABCN_L04-SEC"  
BUS_33998182_001    1 -9.3418E-008 +j -1.3579E-006    1.3612E-006      0.0686
BUS_33998182_001    2 2.1721E-008 +j -1.4651E-006    1.4653E-006     -0.0148
BUS_33998182_001    3 7.1697E-008 +j -1.4183E-006    1.4201E-006     -0.0505
BUS_33998182_001    4 5.0957E-015 +j -2.6062E-015    5.7235E-015     -0.8903
 TERMINAL TOTAL   2.0508E-013 +j -4.2414E-006    4.2414E-006      0.0000
------------
ELEMENT = "Line._ABCN_L04-SEC"  
BUS_33998182_014    1 -9.3418E-008 +j -2.7478E-009    9.3459E-008      0.9996
BUS_33998182_014    2 2.1721E-008 +j -1.0994E-007    1.1206E-007     -0.1938
BUS_33998182_014    3 7.1697E-008 +j -6.3087E-008    9.5501E-008     -0.7508
BUS_33998182_014    4 5.0941E-015 +j -2.5993E-015    5.719E-015     -0.8907
 TERMINAL TOTAL   -1.5707E-013 +j -1.7577E-007    1.7577E-007      0.0000
ELEMENT = "Line._ABCN_L05-SEC"  
BUS_33998182_001    1 -7.5963E-008 +j -5.2967E-006    5.2972E-006      0.0143
BUS_33998182_001    2 1.7692E-008 +j -5.3839E-006    5.3839E-006     -0.0033
BUS_33998182_001    3 5.8336E-008 +j -5.3458E-006    5.3461E-006     -0.0109
BUS_33998182_001    4 3.477E-014 +j -1.5872E-015    3.4807E-014     -0.9990
 TERMINAL TOTAL   6.6066E-011 +j -1.6026E-005    1.6026E-005      0.0000
------------
ELEMENT = "Line._ABCN_L05-SEC"  
BUS_33998182_002    1 -7.604E-008 +j 4.1897E-006    4.1904E-006     -0.0181
BUS_33998182_002    2 1.765E-008 +j 4.1025E-006    4.1025E-006      0.0043
BUS_33998182_002    3 5.8324E-008 +j 4.1406E-006    4.141E-006      0.0141
BUS_33998182_002    4 -2.6249E-014 +j -2.4305E-015    2.6362E-014      0.9957
 TERMINAL TOTAL   -6.6173E-011 +j 1.2433E-005    1.2433E-005      0.0000
ELEMENT = "Line._ABCN_L06-SEC"  
BUS_33998182_001    1 -1.0126E-007 +j -6.8366E-006    6.8374E-006      0.0148
BUS_33998182_001    2 2.3663E-008 +j -5.5978E-006    5.5978E-006     -0.0042
BUS_33998182_001    3 7.7914E-008 +j -6.9021E-006    6.9025E-006     -0.0113
BUS_33998182_001    4 2.4532E-014 +j -3.2859E-015    2.4751E-014     -0.9911
 TERMINAL TOTAL   3.1346E-010 +j -1.9336E-005    1.9336E-005      0.0000
------------
ELEMENT = "Line._ABCN_L06-SEC"  
BUS_33998182_003    1 -1.0149E-007 +j  5.36E-006    5.361E-006     -0.0189
BUS_33998182_003    2 2.3478E-008 +j 3.8885E-006    3.8886E-006      0.0060
BUS_33998182_003    3 7.7694E-008 +j 5.2946E-006    5.2951E-006      0.0147
BUS_33998182_003    4 -1.3501E-014 +j -2.5602E-015    1.3742E-014      0.9825
 TERMINAL TOTAL   -3.1345E-010 +j 1.4543E-005    1.4543E-005      0.0000
= = = = = = = = = = = = = = = = = = =  = = = = = = = = = = =  = =

Power Conversion Elements

  Bus         Phase     kW   +j  kvar         kVA         PF

